
This summary file was generated by TurbSim (from OpenFAST-v3.5.4-1-gcb2dd463) on 31-Dec-2024 at 11:30:30.


ERROR:  ReadInputFile:Invalid logical input for file "TurbSim_CAT1.profiles" occurred while trying to read Echo.

ABORTING PROGRAM.
